Version 4
SHEET 1 1880 680
WIRE -544 -208 -592 -208
WIRE -400 -208 -544 -208
WIRE -272 -208 -400 -208
WIRE -240 -208 -272 -208
WIRE -16 -208 -160 -208
WIRE 32 -208 -16 -208
WIRE 144 -208 112 -208
WIRE 208 -208 144 -208
WIRE -400 -192 -400 -208
WIRE -272 -176 -272 -208
WIRE -16 -176 -16 -208
WIRE -768 -144 -816 -144
WIRE -592 -144 -592 -208
WIRE -592 -144 -688 -144
WIRE -544 -144 -544 -208
WIRE -816 -112 -816 -144
WIRE -208 -112 -208 -144
WIRE -208 -112 -272 -112
WIRE 448 -112 448 -208
WIRE -400 -96 -400 -112
WIRE -208 -96 -208 -112
WIRE -128 -96 -208 -96
WIRE -544 -48 -544 -80
WIRE -464 -48 -544 -48
WIRE -16 -48 -16 -96
WIRE -16 -48 -64 -48
WIRE -544 -16 -544 -48
WIRE 448 -16 448 -32
WIRE -816 0 -816 -32
WIRE -208 0 -208 -96
WIRE -208 0 -400 0
WIRE -128 64 -128 0
WIRE 144 64 144 -208
WIRE 144 64 -128 64
WIRE -208 80 -208 0
WIRE -544 96 -544 64
WIRE 144 128 144 64
WIRE -208 192 -208 160
WIRE -240 224 -288 224
WIRE -128 224 -176 224
WIRE -592 272 -592 -144
WIRE -544 272 -592 272
WIRE -368 272 -464 272
WIRE -224 272 -224 256
WIRE -224 272 -368 272
WIRE -192 272 -192 256
WIRE 144 272 144 208
WIRE 144 272 -192 272
WIRE 144 288 144 272
WIRE -368 336 -368 272
WIRE 144 384 144 368
WIRE -368 464 -368 400
WIRE 144 480 144 464
FLAG -816 0 0
FLAG -368 464 0
FLAG -128 224 VF
FLAG -288 224 0
FLAG 144 480 0
FLAG -592 -144 VF
FLAG 208 -208 Vo
FLAG -544 96 0
FLAG -16 32 0
FLAG 448 -16 0
FLAG -368 272 Vz
SYMBOL OpAmps\\opamp2 -144 224 M270
WINDOW 3 45 226 VLeft 2
WINDOW 0 -66 65 Left 2
SYMATTR Value LM741/NS
SYMATTR InstName U1
SYMBOL zener -352 400 R180
WINDOW 0 -52 49 Left 2
WINDOW 3 -77 5 Left 2
SYMATTR InstName DZ2
SYMATTR Value 1N750
SYMBOL res -448 256 R90
WINDOW 0 0 56 VBottom 2
WINDOW 3 32 56 VTop 2
SYMATTR InstName R1
SYMATTR Value 665
SYMATTR SpiceLine tol=1 pwr=0.1
SYMBOL res 128 112 R0
SYMATTR InstName RA
SYMATTR Value 1K
SYMATTR SpiceLine tol=1 pwr=0.1
SYMBOL res 128 272 R0
SYMATTR InstName RB
SYMATTR Value 1
SYMATTR SpiceLine tol=0 pwr=0.1
SYMBOL res 128 368 R0
SYMATTR InstName RC
SYMATTR Value 640
SYMATTR SpiceLine tol=1 pwr=0.1
SYMBOL voltage -816 -128 R0
WINDOW 123 0 0 Left 0
WINDOW 39 0 0 Left 0
WINDOW 3 -21 195 Left 2
SYMATTR InstName V1
SYMATTR Value SINE(18.36 0.1 100)
SYMBOL res 128 -224 R90
WINDOW 0 0 56 VBottom 2
WINDOW 3 32 56 VTop 2
SYMATTR InstName RS
SYMATTR Value 0.4
SYMBOL res -224 64 R0
SYMATTR InstName RT
SYMATTR Value 1K
SYMBOL pnp -464 0 M180
SYMATTR InstName Q2
SYMATTR Value BC557B
SYMBOL res -416 -208 R0
SYMATTR InstName RX
SYMATTR Value 1.62K
SYMATTR SpiceLine tol=1 pwr=0.1
SYMBOL zener -528 -80 R180
WINDOW 0 -52 49 Left 2
WINDOW 3 -77 5 Left 2
SYMATTR InstName DZ1
SYMATTR Value 1N750
SYMBOL res -560 -32 R0
SYMATTR InstName RI
SYMATTR Value 3.32K
SYMATTR SpiceLine tol=1 pwr=0.1
SYMBOL nuevo\\TIP120 -208 -176 R270
SYMATTR InstName U2
SYMBOL npn -64 -96 M0
SYMATTR InstName Q1
SYMATTR Value BC547B
SYMBOL res -32 -192 R0
SYMATTR InstName R3
SYMATTR Value 200
SYMATTR SpiceLine tol=1 pwr=0.1
SYMBOL res -32 -64 R0
SYMATTR InstName R4
SYMATTR Value 10K
SYMATTR SpiceLine tol=1 pwr=0.1
SYMBOL res -672 -160 R90
WINDOW 0 0 56 VBottom 2
WINDOW 3 32 56 VTop 2
SYMATTR InstName R2
SYMATTR Value 0.4
SYMBOL cap -288 -176 R0
WINDOW 3 -16 7 Left 2
SYMATTR InstName C1
SYMATTR Value 2n
SYMBOL res 464 -16 R180
WINDOW 0 36 76 Left 2
WINDOW 3 36 40 Left 2
SYMATTR InstName RL
SYMATTR Value 6
TEXT -1456 -448 Left 2 !.lib "C:\\Users\\leiit\\Documents\\FACULTAD\\4TO AÑO\\CIRCUITOS ELECTRÓNICOS 1\\SIMULADOR\\circuitos_simulacion\\Problemas de la guía\\741.lib"
TEXT -784 -24 Left 2 ;Fuente 18V@3A
TEXT -1176 -360 Left 2 !;op
TEXT -1168 -400 Left 2 !.lib "C:\\Users\\leiit\\Documents\\FACULTAD\\4TO AÑO\\CIRCUITOS ELECTRÓNICOS 1\\SIMULADOR\\Darlington en LTSpice-20210702\\NDarlington.lib"
TEXT -1400 -280 Left 2 !.tran 0 0.2 0.001 0.1
TEXT -528 344 Left 2 ;Referencia
TEXT -480 72 Left 2 ;Amplificador de error
TEXT -296 -248 Left 2 ;Elemento de control
TEXT 176 -152 Left 2 ;Tensión de salida
TEXT -112 88 Left 2 ;Protección c-c
TEXT 216 248 Left 2 ;Muestreo
TEXT 184 -120 Left 2 ;5-12V@0-2A
TEXT 464 -112 Left 2 ;carga
